/*--------------------------------*- C++ -*----------------------------------*\
| =========                 |                                                 |
| \\      /  F ield         | OpenFOAM: The Open Source CFD Toolbox           |
|  \\    /   O peration     | Version:  v2012                                 |
|   \\  /    A nd           | Website:  www.openfoam.com                      |
|    \\/     M anipulation  |                                                 |
\*---------------------------------------------------------------------------*/
FoamFile
{
    version     2.0;
    format      binary;
    class       polyBoundaryMesh;
    arch        "LSB;label=32;scalar=64";
    location    "constant/polyMesh";
    object      boundary;
}
// * * * * * * * * * * * * * * * * * * * * * * * * * * * * * * * * * * * * * //


6
(
    back
    {
        type            empty;
        physicalType    patch;
        nFaces          20480;
        startFace       40288;
    }

    left
    {
        type            patch;
        physicalType    patch;
        nFaces          32;
        startFace       60768;
    }

    bottom
    {
        type            patch;
        physicalType    patch;
        nFaces          640;
        startFace       60800;
    }

    right
    {
        type            patch;
        physicalType    patch;
        nFaces          32;
        startFace       61440;
    }

    top
    {
        type            patch;
        physicalType    patch;
        nFaces          640;
        startFace       61472;
    }

    front
    {
        type            empty;
        physicalType    patch;
        nFaces          20480;
        startFace       62112;
    }

)


// ************************************************************************* //
