/*--------------------------------*- C++ -*----------------------------------*\
| =========                 |                                                 |
| \\      /  F ield         | OpenFOAM: The Open Source CFD Toolbox           |
|  \\    /   O peration     | Version:  v2012                                 |
|   \\  /    A nd           | Website:  www.openfoam.com                      |
|    \\/     M anipulation  |                                                 |
\*---------------------------------------------------------------------------*/
FoamFile
{
    version     2.0;
    format      binary;
    class       polyBoundaryMesh;
    arch        "LSB;label=32;scalar=64";
    location    "constant/polyMesh";
    object      boundary;
}
// * * * * * * * * * * * * * * * * * * * * * * * * * * * * * * * * * * * * * //


6
(
    back
    {
        type            empty;
        physicalType    patch;
        nFaces          53792;
        startFace       80016;
    }

    front
    {
        type            empty;
        physicalType    patch;
        nFaces          53792;
        startFace       133808;
    }

    left
    {
        type            patch;
        physicalType    patch;
        nFaces          32;
        startFace       187600;
    }

    bottom
    {
        type            patch;
        physicalType    patch;
        nFaces          640;
        startFace       187632;
    }

    right
    {
        type            patch;
        physicalType    patch;
        nFaces          32;
        startFace       188272;
    }

    top
    {
        type            patch;
        physicalType    patch;
        nFaces          640;
        startFace       188304;
    }

)


// ************************************************************************* //
