/*--------------------------------*- C++ -*----------------------------------*\
| =========                 |                                                 |
| \\      /  F ield         | OpenFOAM: The Open Source CFD Toolbox           |
|  \\    /   O peration     | Version:  v2012                                 |
|   \\  /    A nd           | Website:  www.openfoam.com                      |
|    \\/     M anipulation  |                                                 |
\*---------------------------------------------------------------------------*/
FoamFile
{
    version     2.0;
    format      ascii;
    class       polyBoundaryMesh;
    location    "constant/polyMesh";
    object      boundary;
}
// * * * * * * * * * * * * * * * * * * * * * * * * * * * * * * * * * * * * * //

6
(
    bottom
    {
        type            patch;
        physicalType    patch;
        nFaces          4480;
        startFace       208384;
    }
    inside
    {
        type            patch;
        physicalType    patch;
        nFaces          1280;
        startFace       212864;
    }
    symmx
    {
        type            patch;
        physicalType    patch;
        nFaces          896;
        startFace       214144;
    }
    top
    {
        type            patch;
        physicalType    patch;
        nFaces          4480;
        startFace       215040;
    }
    symmy
    {
        type            patch;
        physicalType    patch;
        nFaces          896;
        startFace       219520;
    }
    outside
    {
        type            patch;
        physicalType    patch;
        nFaces          1280;
        startFace       220416;
    }
)

// ************************************************************************* //
