/*--------------------------------*- C++ -*----------------------------------*\
| =========                 |                                                 |
| \\      /  F ield         | OpenFOAM: The Open Source CFD Toolbox           |
|  \\    /   O peration     | Version:  v2012                                 |
|   \\  /    A nd           | Website:  www.openfoam.com                      |
|    \\/     M anipulation  |                                                 |
\*---------------------------------------------------------------------------*/
FoamFile
{
    version     2.0;
    format      ascii;
    class       polyBoundaryMesh;
    location    "constant/polyMesh";
    object      boundary;
}
// * * * * * * * * * * * * * * * * * * * * * * * * * * * * * * * * * * * * * //


7
(
    back
    {
        type            empty;
        physicalType    empty;
        nFaces          2000;
        startFace       2930;
    }

    front
    {
        type            empty;
        physicalType    empty;
        nFaces          2000;
        startFace       4930;
    }

    left
    {
        type            patch;
        physicalType    patch;
        nFaces          30;
        startFace       6930;
    }

    hole
    {
        type            patch;
        physicalType    patch;
        nFaces          20;
        startFace       6960;
    }

    down
    {
        type            patch;
        physicalType    patch;
        nFaces          30;
        startFace       6980;
    }

    right
    {
        type            patch;
        physicalType    patch;
        nFaces          30;
        startFace       7010;
    }

    up
    {
        type            patch;
        physicalType    patch;
        nFaces          30;
        startFace       7040;
    }

)


// ************************************************************************* //
