/*--------------------------------*- C++ -*----------------------------------*\
| =========                 |                                                 |
| \\      /  F ield         | OpenFOAM: The Open Source CFD Toolbox           |
|  \\    /   O peration     | Version:  v2012                                 |
|   \\  /    A nd           | Website:  www.openfoam.com                      |
|    \\/     M anipulation  |                                                 |
\*---------------------------------------------------------------------------*/
FoamFile
{
    version     2.0;
    format      ascii;
    class       polyBoundaryMesh;
    location    "constant/polyMesh";
    object      boundary;
}
// * * * * * * * * * * * * * * * * * * * * * * * * * * * * * * * * * * * * * //

6
(
    symmz
    {
        type            patch;
        physicalType    patch;
        nFaces          4410;
        startFace       73836;
    }
    tractionFree
    {
        type            patch;
        physicalType    patch;
        nFaces          1728;
        startFace       78246;
    }
    fixed
    {
        type            patch;
        physicalType    patch;
        nFaces          90;
        startFace       79974;
    }
    front
    {
        type            patch;
        physicalType    patch;
        nFaces          4410;
        startFace       80064;
    }
    symmx
    {
        type            patch;
        physicalType    patch;
        nFaces          360;
        startFace       84474;
    }
    loading
    {
        type            patch;
        physicalType    patch;
        nFaces          90;
        startFace       84834;
    }
)

// ************************************************************************* //
