/*--------------------------------*- C++ -*----------------------------------*\
| =========                 |                                                 |
| \\      /  F ield         | OpenFOAM: The Open Source CFD Toolbox           |
|  \\    /   O peration     | Version:  v2012                                 |
|   \\  /    A nd           | Website:  www.openfoam.com                      |
|    \\/     M anipulation  |                                                 |
\*---------------------------------------------------------------------------*/
FoamFile
{
    version     2.0;
    format      ascii;
    class       polyBoundaryMesh;
    location    "constant/polyMesh";
    object      boundary;
}
// * * * * * * * * * * * * * * * * * * * * * * * * * * * * * * * * * * * * * //

6
(
    symmz
    {
        type            patch;
        physicalType    patch;
        nFaces          17970;
        startFace       1160201;
    }
    tractionFree
    {
        type            patch;
        physicalType    patch;
        nFaces          17636;
        startFace       1178171;
    }
    fixed
    {
        type            patch;
        physicalType    patch;
        nFaces          304;
        startFace       1195807;
    }
    front
    {
        type            patch;
        physicalType    patch;
        nFaces          17984;
        startFace       1196111;
    }
    symmx
    {
        type            patch;
        physicalType    patch;
        nFaces          908;
        startFace       1214095;
    }
    loading
    {
        type            patch;
        physicalType    patch;
        nFaces          308;
        startFace       1215003;
    }
)

// ************************************************************************* //
