/*--------------------------------*- C++ -*----------------------------------*\
| =========                 |                                                 |
| \\      /  F ield         | OpenFOAM: The Open Source CFD Toolbox           |
|  \\    /   O peration     | Version:  v2012                                 |
|   \\  /    A nd           | Website:  www.openfoam.com                      |
|    \\/     M anipulation  |                                                 |
\*---------------------------------------------------------------------------*/
FoamFile
{
    version     2.0;
    format      binary;
    class       polyBoundaryMesh;
    arch        "LSB;label=32;scalar=64";
    location    "constant/polyMesh";
    object      boundary;
}
// * * * * * * * * * * * * * * * * * * * * * * * * * * * * * * * * * * * * * //


6
(
    back
    {
        type            empty;
        physicalType    patch;
        nFaces          13458;
        startFace       19851;
    }

    front
    {
        type            empty;
        physicalType    patch;
        nFaces          13458;
        startFace       33309;
    }

    left
    {
        type            patch;
        physicalType    patch;
        nFaces          16;
        startFace       46767;
    }

    bottom
    {
        type            patch;
        physicalType    patch;
        nFaces          320;
        startFace       46783;
    }

    right
    {
        type            patch;
        physicalType    patch;
        nFaces          16;
        startFace       47103;
    }

    top
    {
        type            patch;
        physicalType    patch;
        nFaces          320;
        startFace       47119;
    }

)


// ************************************************************************* //
