/*--------------------------------*- C++ -*----------------------------------*\
| =========                 |                                                 |
| \\      /  F ield         | OpenFOAM: The Open Source CFD Toolbox           |
|  \\    /   O peration     | Version:  v2012                                 |
|   \\  /    A nd           | Website:  www.openfoam.com                      |
|    \\/     M anipulation  |                                                 |
\*---------------------------------------------------------------------------*/
FoamFile
{
    version     2.0;
    format      binary;
    class       polyBoundaryMesh;
    arch        "LSB;label=32;scalar=64";
    location    "constant/polyMesh";
    object      boundary;
}
// * * * * * * * * * * * * * * * * * * * * * * * * * * * * * * * * * * * * * //


6
(
    back
    {
        type            empty;
        physicalType    patch;
        nFaces          788;
        startFace       1098;
    }

    front
    {
        type            empty;
        physicalType    patch;
        nFaces          788;
        startFace       1886;
    }

    left
    {
        type            patch;
        physicalType    patch;
        nFaces          4;
        startFace       2674;
    }

    bottom
    {
        type            patch;
        physicalType    patch;
        nFaces          80;
        startFace       2678;
    }

    right
    {
        type            patch;
        physicalType    patch;
        nFaces          4;
        startFace       2758;
    }

    top
    {
        type            patch;
        physicalType    patch;
        nFaces          80;
        startFace       2762;
    }

)


// ************************************************************************* //
