/*--------------------------------*- C++ -*----------------------------------*\
| =========                 |                                                 |
| \\      /  F ield         | OpenFOAM: The Open Source CFD Toolbox           |
|  \\    /   O peration     | Version:  v2012                                 |
|   \\  /    A nd           | Website:  www.openfoam.com                      |
|    \\/     M anipulation  |                                                 |
\*---------------------------------------------------------------------------*/
FoamFile
{
    version     2.0;
    format      ascii;
    class       polyBoundaryMesh;
    location    "constant/polyMesh";
    object      boundary;
}
// * * * * * * * * * * * * * * * * * * * * * * * * * * * * * * * * * * * * * //


6
(
    symmz
    {
        type            patch;
        physicalType    patch;
        nFaces          490;
        startFace       2324;
    }

    tractionFree
    {
        type            patch;
        physicalType    patch;
        nFaces          192;
        startFace       2814;
    }

    fixed
    {
        type            patch;
        physicalType    patch;
        nFaces          10;
        startFace       3006;
    }

    front
    {
        type            empty;
        physicalType    patch;
        nFaces          490;
        startFace       3016;
    }

    symmx
    {
        type            patch;
        physicalType    patch;
        nFaces          40;
        startFace       3506;
    }

    loading
    {
        type            patch;
        physicalType    patch;
        nFaces          10;
        startFace       3546;
    }

)


// ************************************************************************* //
