/*--------------------------------*- C++ -*----------------------------------*\
| =========                 |                                                 |
| \\      /  F ield         | OpenFOAM: The Open Source CFD Toolbox           |
|  \\    /   O peration     | Version:  v2012                                 |
|   \\  /    A nd           | Website:  www.openfoam.com                      |
|    \\/     M anipulation  |                                                 |
\*---------------------------------------------------------------------------*/
FoamFile
{
    version     2.0;
    format      binary;
    class       polyBoundaryMesh;
    arch        "LSB;label=32;scalar=64";
    location    "constant/polyMesh";
    object      boundary;
}
// * * * * * * * * * * * * * * * * * * * * * * * * * * * * * * * * * * * * * //


6
(
    back
    {
        type            empty;
        physicalType    patch;
        nFaces          166;
        startFace       207;
    }

    front
    {
        type            empty;
        physicalType    patch;
        nFaces          166;
        startFace       373;
    }

    left
    {
        type            patch;
        physicalType    patch;
        nFaces          2;
        startFace       539;
    }

    bottom
    {
        type            patch;
        physicalType    patch;
        nFaces          40;
        startFace       541;
    }

    right
    {
        type            patch;
        physicalType    patch;
        nFaces          2;
        startFace       581;
    }

    top
    {
        type            patch;
        physicalType    patch;
        nFaces          40;
        startFace       583;
    }

)


// ************************************************************************* //
