/*--------------------------------*- C++ -*----------------------------------*\
| =========                 |                                                 |
| \\      /  F ield         | OpenFOAM: The Open Source CFD Toolbox           |
|  \\    /   O peration     | Version:  v2012                                 |
|   \\  /    A nd           | Website:  www.openfoam.com                      |
|    \\/     M anipulation  |                                                 |
\*---------------------------------------------------------------------------*/
FoamFile
{
    version     2.0;
    format      ascii;
    class       polyBoundaryMesh;
    location    "constant/polyMesh";
    object      boundary;
}
// * * * * * * * * * * * * * * * * * * * * * * * * * * * * * * * * * * * * * //

6
(
    bottom
    {
        type            patch;
        physicalType    patch;
        nFaces          17920;
        startFace       1693696;
    }
    inside
    {
        type            patch;
        physicalType    patch;
        nFaces          5120;
        startFace       1711616;
    }
    symmx
    {
        type            patch;
        physicalType    patch;
        nFaces          3584;
        startFace       1716736;
    }
    top
    {
        type            patch;
        physicalType    patch;
        nFaces          17920;
        startFace       1720320;
    }
    symmy
    {
        type            patch;
        physicalType    patch;
        nFaces          3584;
        startFace       1738240;
    }
    outside
    {
        type            patch;
        physicalType    patch;
        nFaces          5120;
        startFace       1741824;
    }
)

// ************************************************************************* //
