/*--------------------------------*- C++ -*----------------------------------*\
| =========                 |                                                 |
| \\      /  F ield         | OpenFOAM: The Open Source CFD Toolbox           |
|  \\    /   O peration     | Version:  v2012                                 |
|   \\  /    A nd           | Website:  www.openfoam.com                      |
|    \\/     M anipulation  |                                                 |
\*---------------------------------------------------------------------------*/
FoamFile
{
    version     2.0;
    format      ascii;
    class       polyBoundaryMesh;
    location    "constant/polyMesh";
    object      boundary;
}
// * * * * * * * * * * * * * * * * * * * * * * * * * * * * * * * * * * * * * //


6
(
    bottom
    {
        type            patch;
        physicalType    patch;
        nFaces          5040;
        startFace       355392;
    }

    inside
    {
        type            patch;
        physicalType    patch;
        nFaces          1440;
        startFace       360432;
    }

    symmx
    {
        type            symmetry;
        physicalType    symmetry;
        nFaces          1008;
        startFace       361872;
    }

    top
    {
        type            patch;
        physicalType    patch;
        nFaces          5040;
        startFace       362880;
    }

    symmy
    {
        type            symmetry;
        physicalType    symmetry;
        nFaces          1008;
        startFace       367920;
    }

    outside
    {
        type            patch;
        physicalType    patch;
        nFaces          1440;
        startFace       368928;
    }

)


// ************************************************************************* //
