/*--------------------------------*- C++ -*----------------------------------*\
| =========                 |                                                 |
| \\      /  F ield         | OpenFOAM: The Open Source CFD Toolbox           |
|  \\    /   O peration     | Version:  v2012                                 |
|   \\  /    A nd           | Website:  www.openfoam.com                      |
|    \\/     M anipulation  |                                                 |
\*---------------------------------------------------------------------------*/
FoamFile
{
    version     2.0;
    format      ascii;
    class       polyBoundaryMesh;
    location    "constant/polyMesh";
    object      boundary;
}
// * * * * * * * * * * * * * * * * * * * * * * * * * * * * * * * * * * * * * //

6
(
    bottom
    {
        type            patch;
        physicalType    patch;
        nFaces          1120;
        startFace       25216;
    }
    inside
    {
        type            patch;
        physicalType    patch;
        nFaces          320;
        startFace       26336;
    }
    symmx
    {
        type            patch;
        physicalType    patch;
        nFaces          224;
        startFace       26656;
    }
    top
    {
        type            patch;
        physicalType    patch;
        nFaces          1120;
        startFace       26880;
    }
    symmy
    {
        type            patch;
        physicalType    patch;
        nFaces          224;
        startFace       28000;
    }
    outside
    {
        type            patch;
        physicalType    patch;
        nFaces          320;
        startFace       28224;
    }
)

// ************************************************************************* //
