/*--------------------------------*- C++ -*----------------------------------*\
| =========                 |                                                 |
| \\      /  F ield         | OpenFOAM: The Open Source CFD Toolbox           |
|  \\    /   O peration     | Version:  v2012                                 |
|   \\  /    A nd           | Website:  www.openfoam.com                      |
|    \\/     M anipulation  |                                                 |
\*---------------------------------------------------------------------------*/
FoamFile
{
    version     2.0;
    format      ascii;
    class       polyBoundaryMesh;
    location    "constant/polyMesh";
    object      boundary;
}
// * * * * * * * * * * * * * * * * * * * * * * * * * * * * * * * * * * * * * //

6
(
    bottom
    {
        type            patch;
        physicalType    patch;
        nFaces          70;
        startFace       316;
    }
    inside
    {
        type            patch;
        physicalType    patch;
        nFaces          20;
        startFace       386;
    }
    symmx
    {
        type            patch;
        physicalType    patch;
        nFaces          14;
        startFace       406;
    }
    top
    {
        type            patch;
        physicalType    patch;
        nFaces          70;
        startFace       420;
    }
    symmy
    {
        type            patch;
        physicalType    patch;
        nFaces          14;
        startFace       490;
    }
    outside
    {
        type            patch;
        physicalType    patch;
        nFaces          20;
        startFace       504;
    }
)

// ************************************************************************* //
