/*--------------------------------*- C++ -*----------------------------------*\
| =========                 |                                                 |
| \\      /  F ield         | OpenFOAM: The Open Source CFD Toolbox           |
|  \\    /   O peration     | Version:  v2012                                 |
|   \\  /    A nd           | Website:  www.openfoam.com                      |
|    \\/     M anipulation  |                                                 |
\*---------------------------------------------------------------------------*/
FoamFile
{
    version     2.0;
    format      ascii;
    class       polyBoundaryMesh;
    location    "constant/polyMesh";
    object      boundary;
}
// * * * * * * * * * * * * * * * * * * * * * * * * * * * * * * * * * * * * * //


6
(
    symmz
    {
        type            symmetry;
        physicalType    symmetry;
        nFaces          15680;
        startFace       732928;
    }

    tractionFree
    {
        type            patch;
        physicalType    patch;
        nFaces          6144;
        startFace       748608;
    }

    fixed
    {
        type            patch;
        physicalType    patch;
        nFaces          320;
        startFace       754752;
    }

    front
    {
        type            patch;
        physicalType    patch;
        nFaces          15680;
        startFace       755072;
    }

    symmx
    {
        type            symmetry;
        physicalType    symmetry;
        nFaces          1280;
        startFace       770752;
    }

    loading
    {
        type            patch;
        physicalType    patch;
        nFaces          320;
        startFace       772032;
    }

)


// ************************************************************************* //
