/*--------------------------------*- C++ -*----------------------------------*\
| =========                 |                                                 |
| \\      /  F ield         | OpenFOAM: The Open Source CFD Toolbox           |
|  \\    /   O peration     | Version:  v2012                                 |
|   \\  /    A nd           | Website:  www.openfoam.com                      |
|    \\/     M anipulation  |                                                 |
\*---------------------------------------------------------------------------*/
FoamFile
{
    version     2.0;
    format      binary;
    class       polyBoundaryMesh;
    arch        "LSB;label=32;scalar=64";
    location    "constant/polyMesh";
    object      boundary;
}
// * * * * * * * * * * * * * * * * * * * * * * * * * * * * * * * * * * * * * //


6
(
    back
    {
        type            empty;
        physicalType    patch;
        nFaces          1280;
        startFace       2392;
    }

    left
    {
        type            patch;
        physicalType    patch;
        nFaces          8;
        startFace       3672;
    }

    bottom
    {
        type            patch;
        physicalType    patch;
        nFaces          160;
        startFace       3680;
    }

    right
    {
        type            patch;
        physicalType    patch;
        nFaces          8;
        startFace       3840;
    }

    top
    {
        type            patch;
        physicalType    patch;
        nFaces          160;
        startFace       3848;
    }

    front
    {
        type            empty;
        physicalType    patch;
        nFaces          1280;
        startFace       4008;
    }

)


// ************************************************************************* //
