/*--------------------------------*- C++ -*----------------------------------*\
| =========                 |                                                 |
| \\      /  F ield         | OpenFOAM: The Open Source CFD Toolbox           |
|  \\    /   O peration     | Version:  v2012                                 |
|   \\  /    A nd           | Website:  www.openfoam.com                      |
|    \\/     M anipulation  |                                                 |
\*---------------------------------------------------------------------------*/
FoamFile
{
    version     2.0;
    format      ascii;
    class       polyBoundaryMesh;
    location    "constant/polyMesh";
    object      boundary;
}
// * * * * * * * * * * * * * * * * * * * * * * * * * * * * * * * * * * * * * //

6
(
    bottom
    {
        type            patch;
        physicalType    patch;
        nFaces          2413;
        startFace       75933;
    }
    inside
    {
        type            patch;
        physicalType    patch;
        nFaces          1236;
        startFace       78346;
    }
    symmx
    {
        type            patch;
        physicalType    patch;
        nFaces          284;
        startFace       79582;
    }
    top
    {
        type            patch;
        physicalType    patch;
        nFaces          2413;
        startFace       79866;
    }
    symmy
    {
        type            patch;
        physicalType    patch;
        nFaces          1404;
        startFace       82279;
    }
    outside
    {
        type            patch;
        physicalType    patch;
        nFaces          732;
        startFace       83683;
    }
)

// ************************************************************************* //
