/*--------------------------------*- C++ -*----------------------------------*\
| =========                 |                                                 |
| \\      /  F ield         | OpenFOAM: The Open Source CFD Toolbox           |
|  \\    /   O peration     | Version:  v2012                                 |
|   \\  /    A nd           | Website:  www.openfoam.com                      |
|    \\/     M anipulation  |                                                 |
\*---------------------------------------------------------------------------*/
FoamFile
{
    version     2.0;
    format      ascii;
    class       polyBoundaryMesh;
    location    "constant/polyMesh";
    object      boundary;
}
// * * * * * * * * * * * * * * * * * * * * * * * * * * * * * * * * * * * * * //

6
(
    bottom
    {
        type            patch;
        physicalType    patch;
        nFaces          8960;
        startFace       846848;
    }
    inside
    {
        type            patch;
        physicalType    patch;
        nFaces          2560;
        startFace       855808;
    }
    symmx
    {
        type            patch;
        physicalType    patch;
        nFaces          1792;
        startFace       858368;
    }
    top
    {
        type            patch;
        physicalType    patch;
        nFaces          8960;
        startFace       860160;
    }
    symmy
    {
        type            patch;
        physicalType    patch;
        nFaces          1792;
        startFace       869120;
    }
    outside
    {
        type            patch;
        physicalType    patch;
        nFaces          2560;
        startFace       870912;
    }
)

// ************************************************************************* //
