/*--------------------------------*- C++ -*----------------------------------*\
| =========                 |                                                 |
| \\      /  F ield         | OpenFOAM: The Open Source CFD Toolbox           |
|  \\    /   O peration     | Version:  v2012                                 |
|   \\  /    A nd           | Website:  www.openfoam.com                      |
|    \\/     M anipulation  |                                                 |
\*---------------------------------------------------------------------------*/
FoamFile
{
    version     2.0;
    format      ascii;
    class       polyBoundaryMesh;
    location    "constant/polyMesh";
    object      boundary;
}
// * * * * * * * * * * * * * * * * * * * * * * * * * * * * * * * * * * * * * //

6
(
    bottom
    {
        type            patch;
        physicalType    patch;
        nFaces          204;
        startFace       2712;
    }
    inside
    {
        type            patch;
        physicalType    patch;
        nFaces          104;
        startFace       2916;
    }
    symmx
    {
        type            patch;
        physicalType    patch;
        nFaces          26;
        startFace       3020;
    }
    top
    {
        type            patch;
        physicalType    patch;
        nFaces          204;
        startFace       3046;
    }
    symmy
    {
        type            patch;
        physicalType    patch;
        nFaces          114;
        startFace       3250;
    }
    outside
    {
        type            patch;
        physicalType    patch;
        nFaces          60;
        startFace       3364;
    }
)

// ************************************************************************* //
