/*--------------------------------*- C++ -*----------------------------------*\
| =========                 |                                                 |
| \\      /  F ield         | OpenFOAM: The Open Source CFD Toolbox           |
|  \\    /   O peration     | Version:  v2012                                 |
|   \\  /    A nd           | Website:  www.openfoam.com                      |
|    \\/     M anipulation  |                                                 |
\*---------------------------------------------------------------------------*/
FoamFile
{
    version     2.0;
    format      ascii;
    class       polyBoundaryMesh;
    location    "constant/polyMesh";
    object      boundary;
}
// * * * * * * * * * * * * * * * * * * * * * * * * * * * * * * * * * * * * * //


7
(
    back
    {
        type            empty;
        physicalType    empty;
        nFaces          8000;
        startFace       11860;
    }

    front
    {
        type            empty;
        physicalType    empty;
        nFaces          8000;
        startFace       19860;
    }

    left
    {
        type            patch;
        physicalType    patch;
        nFaces          60;
        startFace       27860;
    }

    hole
    {
        type            patch;
        physicalType    patch;
        nFaces          40;
        startFace       27920;
    }

    down
    {
        type            patch;
        physicalType    patch;
        nFaces          60;
        startFace       27960;
    }

    right
    {
        type            patch;
        physicalType    patch;
        nFaces          60;
        startFace       28020;
    }

    up
    {
        type            patch;
        physicalType    patch;
        nFaces          60;
        startFace       28080;
    }

)


// ************************************************************************* //
