/*--------------------------------*- C++ -*----------------------------------*\
| =========                 |                                                 |
| \\      /  F ield         | OpenFOAM: The Open Source CFD Toolbox           |
|  \\    /   O peration     | Version:  v2012                                 |
|   \\  /    A nd           | Website:  www.openfoam.com                      |
|    \\/     M anipulation  |                                                 |
\*---------------------------------------------------------------------------*/
FoamFile
{
    version     2.0;
    format      ascii;
    class       polyBoundaryMesh;
    location    "constant/polyMesh";
    object      boundary;
}
// * * * * * * * * * * * * * * * * * * * * * * * * * * * * * * * * * * * * * //

6
(
    symmz
    {
        type            patch;
        physicalType    patch;
        nFaces          434;
        startFace       6927;
    }
    tractionFree
    {
        type            patch;
        physicalType    patch;
        nFaces          382;
        startFace       7361;
    }
    fixed
    {
        type            patch;
        physicalType    patch;
        nFaces          12;
        startFace       7743;
    }
    front
    {
        type            patch;
        physicalType    patch;
        nFaces          434;
        startFace       7755;
    }
    symmx
    {
        type            patch;
        physicalType    patch;
        nFaces          36;
        startFace       8189;
    }
    loading
    {
        type            patch;
        physicalType    patch;
        nFaces          12;
        startFace       8225;
    }
)

// ************************************************************************* //
