/*--------------------------------*- C++ -*----------------------------------*\
| =========                 |                                                 |
| \\      /  F ield         | OpenFOAM: The Open Source CFD Toolbox           |
|  \\    /   O peration     | Version:  v2012                                 |
|   \\  /    A nd           | Website:  www.openfoam.com                      |
|    \\/     M anipulation  |                                                 |
\*---------------------------------------------------------------------------*/
FoamFile
{
    version     2.0;
    format      ascii;
    class       polyBoundaryMesh;
    location    "constant/polyMesh";
    object      boundary;
}
// * * * * * * * * * * * * * * * * * * * * * * * * * * * * * * * * * * * * * //

6
(
    symmz
    {
        type            patch;
        physicalType    patch;
        nFaces          4680;
        startFace       167935;
    }
    tractionFree
    {
        type            patch;
        physicalType    patch;
        nFaces          4456;
        startFace       172615;
    }
    fixed
    {
        type            patch;
        physicalType    patch;
        nFaces          82;
        startFace       177071;
    }
    front
    {
        type            patch;
        physicalType    patch;
        nFaces          4678;
        startFace       177153;
    }
    symmx
    {
        type            patch;
        physicalType    patch;
        nFaces          234;
        startFace       181831;
    }
    loading
    {
        type            patch;
        physicalType    patch;
        nFaces          76;
        startFace       182065;
    }
)

// ************************************************************************* //
