/*--------------------------------*- C++ -*----------------------------------*\
| =========                 |                                                 |
| \\      /  F ield         | OpenFOAM: The Open Source CFD Toolbox           |
|  \\    /   O peration     | Version:  v2012                                 |
|   \\  /    A nd           | Website:  www.openfoam.com                      |
|    \\/     M anipulation  |                                                 |
\*---------------------------------------------------------------------------*/
FoamFile
{
    version     2.0;
    format      ascii;
    class       polyBoundaryMesh;
    location    "constant/polyMesh";
    object      boundary;
}
// * * * * * * * * * * * * * * * * * * * * * * * * * * * * * * * * * * * * * //


6
(
    bottom
    {
        type            patch;
        physicalType    patch;
        nFaces          560;
        startFace       12608;
    }

    inside
    {
        type            patch;
        physicalType    patch;
        nFaces          160;
        startFace       13168;
    }

    symmx
    {
        type            symmetry;
        physicalType    symmetry;
        nFaces          112;
        startFace       13328;
    }

    top
    {
        type            patch;
        physicalType    patch;
        nFaces          560;
        startFace       13440;
    }

    symmy
    {
        type            symmetry;
        physicalType    symmetry;
        nFaces          112;
        startFace       14000;
    }

    outside
    {
        type            patch;
        physicalType    patch;
        nFaces          160;
        startFace       14112;
    }

)


// ************************************************************************* //
