/*--------------------------------*- C++ -*----------------------------------*\
| =========                 |                                                 |
| \\      /  F ield         | OpenFOAM: The Open Source CFD Toolbox           |
|  \\    /   O peration     | Version:  v2012                                 |
|   \\  /    A nd           | Website:  www.openfoam.com                      |
|    \\/     M anipulation  |                                                 |
\*---------------------------------------------------------------------------*/
FoamFile
{
    version     2.0;
    format      ascii;
    class       polyBoundaryMesh;
    location    "constant/polyMesh";
    object      boundary;
}
// * * * * * * * * * * * * * * * * * * * * * * * * * * * * * * * * * * * * * //

6
(
    bottom
    {
        type            patch;
        physicalType    patch;
        nFaces          655;
        startFace       12212;
    }
    inside
    {
        type            patch;
        physicalType    patch;
        nFaces          320;
        startFace       12867;
    }
    symmx
    {
        type            patch;
        physicalType    patch;
        nFaces          92;
        startFace       13187;
    }
    top
    {
        type            patch;
        physicalType    patch;
        nFaces          655;
        startFace       13279;
    }
    symmy
    {
        type            patch;
        physicalType    patch;
        nFaces          378;
        startFace       13934;
    }
    outside
    {
        type            patch;
        physicalType    patch;
        nFaces          188;
        startFace       14312;
    }
)

// ************************************************************************* //
